
     RDKit          3D

 21 21  0  0  0  0  0  0  0  0999 V2000
    3.4325    0.1761   -0.3798 C   0  0  0  0  0  0  0  0  0  0  0  0
    2.0678   -0.3219   -0.0087 C   0  0  0  0  0  0  0  0  0  0  0  0
    1.8202   -0.9818    0.9925 O   0  0  0  0  0  0  0  0  0  0  0  0
    1.1644    0.0670   -0.9916 O   0  0  0  0  0  0  0  0  0  0  0  0
   -0.1530   -0.2795   -0.6777 C   0  0  0  0  0  0  0  0  0  0  0  0
   -0.6629   -1.4312   -1.2859 C   0  0  0  0  0  0  0  0  0  0  0  0
   -1.9787   -1.8172   -1.0380 C   0  0  0  0  0  0  0  0  0  0  0  0
   -2.7830   -1.0491   -0.1967 C   0  0  0  0  0  0  0  0  0  0  0  0
   -2.2757    0.1126    0.3949 C   0  0  0  0  0  0  0  0  0  0  0  0
   -0.9529    0.5164    0.1551 C   0  0  0  0  0  0  0  0  0  0  0  0
   -0.4163    1.7653    0.7572 C   0  0  0  0  0  0  0  0  0  0  0  0
   -1.2946    2.3552    1.5911 O   0  0  0  0  0  0  0  0  0  0  0  0
    0.6778    2.2627    0.5645 O   0  0  0  0  0  0  0  0  0  0  0  0
    4.1380   -0.0747    0.4175 H   0  0  0  0  0  0  0  0  0  0  0  0
    3.7622   -0.3030   -1.3049 H   0  0  0  0  0  0  0  0  0  0  0  0
    3.4133    1.2629   -0.4940 H   0  0  0  0  0  0  0  0  0  0  0  0
   -0.0358   -2.0285   -1.9419 H   0  0  0  0  0  0  0  0  0  0  0  0
   -2.3774   -2.7178   -1.4987 H   0  0  0  0  0  0  0  0  0  0  0  0
   -3.8092   -1.3521   -0.0012 H   0  0  0  0  0  0  0  0  0  0  0  0
   -2.9264    0.6977    1.0409 H   0  0  0  0  0  0  0  0  0  0  0  0
   -0.8104    3.1408    1.9213 H   0  0  0  0  0  0  0  0  0  0  0  0
  1  2  1  0
  2  3  2  0
  2  4  1  0
  4  5  1  0
  5  6  2  0
  5 10  1  0
  6  7  1  0
  7  8  2  0
  8  9  1  0
  9 10  2  0
 10 11  1  0
 11 12  1  0
 11 13  2  0
  1 14  1  0
  1 15  1  0
  1 16  1  0
  6 17  1  0
  7 18  1  0
  8 19  1  0
  9 20  1  0
 12 21  1  0
M  END
